Circuit: * Z:\home\administrator\WirelessCharger\SPICE\SP_rectifier_only.asc

.OP point found by inspection.

Date: Mon Jan 11 22:40:51 2016
Total elapsed time: 1.068 seconds.

tnom = 27
temp = 27
method = modified trap
totiter = 136251
traniter = 136251
tranpoints = 41713
accept = 27467
rejected = 14246
matrix size = 13
fillins = 8
solver = Normal
Matrix Compiler1: 1.29 KB object code size  1.4/0.6/[0.5]
Matrix Compiler2: 1.19 KB object code size  0.5/0.6/[0.5]


